/*--------------------------------*- C++ -*----------------------------------*\
| =========                 |                                                 |
| \\      /  F ield         | foam-extend: Open Source CFD                    |
|  \\    /   O peration     | Version:     4.0                                |
|   \\  /    A nd           | Web:         http://www.foam-extend.org         |
|    \\/     M anipulation  |                                                 |
\*---------------------------------------------------------------------------*/
FoamFile
{
    version     2.0;
    format      ascii;
    class       dictionary;
    object      fvSolution;
}
// * * * * * * * * * * * * * * * * * * * * * * * * * * * * * * * * * * * * * //

solvers
{
    p
    {
        solver          PCG;
        preconditioner  DIC;
        tolerance       1e-06;
        relTol          0.05;
        minIter         1;
        maxIter         1000;
        smoother        GaussSeidel;
        nPreSweeps      0;
        nPostSweeps     2;
        nFinestSweeps   2;
        scaleCorrection true;
        directSolveCoarsest false;
        cacheAgglomeration true;
        nCellsInCoarsestLevel 20;
        agglomerator    faceAreaPair;
        mergeLevels     1;
    }

    pFinal
    {
        solver          PCG;
        smoother        GaussSeidel;
        preconditioner  DIC;
        tolerance       1e-06;
        relTol          0;
    }

    cellMotionU
    {
        solver          GAMG;
        tolerance       1e-06;
        relTol          0.001;
        minIter         1;
        maxIter         100;
        smoother        GaussSeidel;
        nPreSweeps      0;
        nPostSweeps     2;
        nFinestSweeps   2;
        scaleCorrection true;
        directSolveCoarsest false;
        cacheAgglomeration true;
        nCellsInCoarsestLevel 20;
        agglomerator    faceAreaPair;
        mergeLevels     1;
    }

    U
    {
        solver          BICCG; //BiCGStab;
        preconditioner  DILU;
        tolerance       1e-06;
        relTol          0;
    }

    k
    {
        solver          BICCG; //BiCGStab;
        preconditioner  DILU;
        tolerance       1e-06;
        relTol          0;
    }

    B
    {
        solver          BICCG; //BiCGStab;
        preconditioner  DILU;
        tolerance       1e-06;
        relTol          0;
    }

    nuTilda
    {
        solver          BICCG; //BiCGStab;
        preconditioner  DILU;
        tolerance       1e-06;
        relTol          0;
    }
}

RK4
{
    pRefCell        0;
    pRefValue       0;
}

// ************************************************************************* //
