/*--------------------------------*- C++ -*----------------------------------*\
| =========                 |                                                 |
| \\      /  F ield         | foam-extend: Open Source CFD                    |
|  \\    /   O peration     | Version:     4.0                                |
|   \\  /    A nd           | Web:         http://www.foam-extend.org         |
|    \\/     M anipulation  |                                                 |
\*---------------------------------------------------------------------------*/
FoamFile
{
    version     2.0;
    format      ascii;
    class       dictionary;
    object      blockMeshDict;
}
// * * * * * * * * * * * * * * * * * * * * * * * * * * * * * * * * * * * * * //

convertToMeters 1;

vertices
(
//Level 0
    (0.95 0 -0.2)
    (1.05 0 -0.2)
    (0.95 0 -0.6)
    (1.05 0 -0.6)
//Level 1
    (0.95 0.2 -0.2)
    (1.05 0.2 -0.2)
    (0.95 0.2 -0.6)
    (1.05 0.2 -0.6)
);

blocks
(
    hex (2 3 7 6 0 1 5 4) (10 20 40) simpleGrading (1 1 1)
);

edges
(
);

patches
(
    wall interface
    (
        (2 0 4 6)
        (1 3 7 5)
        (4 5 7 6)
        (0 1 5 4)
        (3 2 6 7)
    )
    wall bottom
    (
        (0 2 3 1)
    )
);

mergePatchPairs
(
);


// ************************************************************************* //
